
* RMCF 0805 model
* Simulated Characteristics
*   Resistance
* Characteristics Not Simulated
*   Temperature Effects
*   Breakdown at High Voltage
*   Part-to-Part Variance
*   Thermal Noise
*   Parasitic Inductances
*   Leakage Capacitances

.SUBCKT RMCF0805FT12R0 P1 P2
Rbody P1 P2 12
.ENDS
