
* RMCF 0603 model
* Simulated Characteristics
*   Resistance
* Characteristics Not Simulated
*   Temperature Effects
*   Breakdown at High Voltage
*   Part-to-Part Variance
*   Thermal Noise
*   Parasitic Inductances
*   Leakage Capacitances

.SUBCKT RMCF0603FT5R60 P1 P2
Rbody P1 P2 5.6
.ENDS
