
* RMCF 1206 model
* Simulated Characteristics
*   Resistance
* Characteristics Not Simulated
*   Temperature Effects
*   Breakdown at High Voltage
*   Part-to-Part Variance
*   Thermal Noise
*   Parasitic Inductances
*   Leakage Capacitances

.SUBCKT RMCF1206FT1R00 P1 P2
Rbody P1 P2 1.0
.ENDS
