
* Custom shunt resistor model
* Simulated Characteristics
*   Resistance
* Characteristics Not Simulated
*   Temperature Effects
*   Breakdown at High Voltage
*   Part-to-Part Variance
*   Thermal Noise
*   Parasitic Inductances
*   Leakage Capacitances

.SUBCKT WSL1206R0100FEA18 P1 P2
Rbody P1 P2 10m
.ENDS
