* Note: This model is for the Digikey and Mouser equivalent parts, rather than
* the JLCPCB pick-and-place part. It should be almost equivalent.

*$
********************************************************************************
* ON Semiconductor Schottky Rectifier diode FSV20100V Model Library
* Last Update: July 22, 2017
* Model Version: 1.00
* Simulator: Pspice 17.2
*
********************************************************************************
* Model Contacts:
*    James Victory     James.Victory@onsemi.com
*    Jie Bai           jie.bai@onsemi.com
*
********************************************************************************
* Reversion History:
*	Vers.	Date		Brief Description
*	1.00	07/22/2016	Model is based on datasheet
*
********************************************************************************
.subckt FSV20100V 1 2 3
+ params: area=1  
r1 1 A 1e-5
r2 2 A 1e-5  
d1 A 3 dsky {area}
.model dsky d  
+ is=3.403E-06 rs=0.00607 n=1.083  
+ eg=0.7417 ikf=2.206 
+ isr=3.179E-07 nr=1.5 
+ cjo=5.174E-09 vj=0.9 m=0.6579  
+ fc=0.5 tt=1E-09 
+ trs1=0.005398 trs2=0  
+ xti=-0.2146 tikf=-0.001424 
+ bv=100 ibv=0.0008 ibvl=1 
+ nbv=1 nbvl=1  
.ends FSV20100V
