
* Custom ceramic capacitor model
* Simulated Characteristics
*   Capacitance
* Characteristics Not Simulated
*   Temperature Effects
*   Breakdown at High Voltage
*   Part-to-Part Variance
*   Thermal Noise
*   Series Inductances
*   Leakage Resistance
*   Series Resistance

.SUBCKT C0603X121J5GACTU P1 P2
Cbody P1 P2 120p
.ENDS
