
* Custom ceramic capacitor model
* Simulated Characteristics
*   Capacitance
* Characteristics Not Simulated
*   Temperature Effects
*   Breakdown at High Voltage
*   Part-to-Part Variance
*   Thermal Noise
*   Series Inductances
*   Leakage Resistance
*   Series Resistance

.SUBCKT CGA3E1X7R1V684K080AC P1 P2
Cbody P1 P2 680n
.ENDS
