
* Custom power inductor model
* Simulated Characteristics
*   Inductance
*   Series Resistance
* Characteristics Not Simulated
*   Temperature Effects
*   Breakdown at High Voltage
*   Saturation Current
*   Part-to-Part Variance
*   Thermal Noise
*   Parasitic Capacitance

.SUBCKT CDRH104RNP-150NC P1 P2
Lbody P1 split 15u
Rseries split P2 50m
.ENDS
